bench/sd133.raw
0, 100.00, 33, 0, 0, 50.000000
BENCHMARK MODEL BASED ON SD, CHINA
SHANDONG UNIVERSITY, LI CHANGGANG&XU TAOYANG, 2017-12-21
     101, "BEIZHOU             ",   525.00,  1,   37,    1,    1,   0.993670,   1.114600, 1.1000, 0.9000, 1.1000, 0.9000, 50.0
     102, "BINZHOU             ",   525.00,  1,   37,    1,    1,   0.995530,   2.509700, 1.1000, 0.9000, 1.1000, 0.9000, 50.0
     103, "BOCHANG             ",   525.00,  1,   37,    1,    1,   0.999260,   3.502400, 1.1000, 0.9000, 1.1000, 0.9000, 50.0
     104, "BOCHANG-G           ",    20.00,  2,   37,    1,    1,   1.000000,   4.075800, 1.1000, 0.9000, 1.1000, 0.9000, 50.0
     105, "CHAIFU              ",   525.00,  1,   37,    1,    1,   0.994400,   0.494000, 1.1000, 0.9000, 1.1000, 0.9000, 50.0
     106, "CHANGLE             ",   525.00,  1,   37,    1,    1,   0.996100,   4.887600, 1.1000, 0.9000, 1.1000, 0.9000, 50.0
     107, "CHANGLE-UHV         ",  1050.00,  1,   37,    1,    1,   0.996320,   4.911400, 1.1000, 0.9000, 1.1000, 0.9000, 50.0
     108, "KUNYU-PUMP          ",   525.00,  1,   37,    1,    1,   0.996350,  17.709600, 1.1000, 0.9000, 1.1000, 0.9000, 50.0
     109, "KUNYU-PUMP-G        ",    13.00,  2,   37,    1,    1,   1.000000,  18.744700, 1.1000, 0.9000, 1.1000, 0.9000, 50.0
     110, "DAZE                ",   525.00,  1,   37,    1,    1,   0.982190,  12.193100, 1.1000, 0.9000, 1.1000, 0.9000, 50.0
     111, "DAIZHONG            ",   525.00,  1,   37,    1,    1,   0.993740,  -4.116800, 1.1000, 0.9000, 1.1000, 0.9000, 50.0
     112, "DEZHOU              ",   525.00,  1,   37,    1,    1,   0.992130,  -0.522800, 1.1000, 0.9000, 1.1000, 0.9000, 50.0
     113, "DEZHOU-G            ",    20.00,  2,   37,    1,    1,   1.000000,   7.133300, 1.1000, 0.9000, 1.1000, 0.9000, 50.0
     114, "DONGE               ",   525.00,  1,   37,    1,    1,   0.992490,  -0.150400, 1.1000, 0.9000, 1.1000, 0.9000, 50.0
     115, "DONGDIAN            ",   525.00,  1,   37,    1,    1,   0.998090,   3.262300, 1.1000, 0.9000, 1.1000, 0.9000, 50.0
     116, "DONGDIAN-G          ",    20.00,  2,   37,    1,    1,   1.000000,   3.836300, 1.1000, 0.9000, 1.1000, 0.9000, 50.0
     117, "FUGUO               ",   525.00,  1,   37,    1,    1,   0.994090,   1.895000, 1.1000, 0.9000, 1.1000, 0.9000, 50.0
     118, "GAOQING             ",   525.00,  1,   37,    1,    1,   0.991830,   1.028900, 1.1000, 0.9000, 1.1000, 0.9000, 50.0
     119, "GAOQING-G           ",    20.00,  2,   37,    1,    1,   1.000000,   7.133300, 1.1000, 0.9000, 1.1000, 0.9000, 50.0
     120, "GAOXIANG            ",   525.00,  1,   37,    1,    1,   1.001790,   4.739300, 1.1000, 0.9000, 1.1000, 0.9000, 50.0
     121, "GAOXIANG-UHV        ",  1050.00,  1,   37,    1,    1,   1.001820,   4.758200, 1.1000, 0.9000, 1.1000, 0.9000, 50.0
     122, "GUANTING            ",   525.00,  1,   37,    1,    1,   0.988450,   6.838900, 1.1000, 0.9000, 1.1000, 0.9000, 50.0
     123, "GUANZHONG           ",   525.00,  1,   37,    1,    1,   0.993720,   0.245700, 1.1000, 0.9000, 1.1000, 0.9000, 50.0
     124, "GUANGZHOU           ",   525.00,  1,   37,    1,    1,   0.987200,  12.605200, 1.1000, 0.9000, 1.1000, 0.9000, 50.0
     125, "GUANGGU             ",   525.00,  1,   37,    1,    1,   0.985740,   2.631100, 1.1000, 0.9000, 1.1000, 0.9000, 50.0
     126, "GUANGGU-UHV         ",  1050.00,  1,   37,    1,    1,   1.001710,   6.275700, 1.1000, 0.9000, 1.1000, 0.9000, 50.0
     127, "GUILING             ",   525.00,  1,   37,    1,    1,   0.993970,  -1.761300, 1.1000, 0.9000, 1.1000, 0.9000, 50.0
     128, "HAIKOU              ",   525.00,  1,   37,    1,    1,   0.994260,   2.407300, 1.1000, 0.9000, 1.1000, 0.9000, 50.0
     129, "HAIYANG             ",   525.00,  1,   37,    1,    1,   0.988340,  23.005400, 1.1000, 0.9000, 1.1000, 0.9000, 50.0
     130, "HAIYANG-G           ",    20.00,  2,   37,    1,    1,   1.000000,  28.812400, 1.1000, 0.9000, 1.1000, 0.9000, 50.0
     131, "HEZE                ",   525.00,  1,   37,    1,    1,   0.993680,  -1.452600, 1.1000, 0.9000, 1.1000, 0.9000, 50.0
     132, "HEZE-G              ",    20.00,  2,   37,    1,    1,   1.000000,  -0.876000, 1.1000, 0.9000, 1.1000, 0.9000, 50.0
     133, "HEZE-UHV            ",  1050.00,  1,   37,    1,    1,   0.993430,  -1.451300, 1.1000, 0.9000, 1.1000, 0.9000, 50.0
     134, "HUADE               ",   525.00,  1,   37,    1,    1,   0.998580,   3.036400, 1.1000, 0.9000, 1.1000, 0.9000, 50.0
     135, "HUADE-G             ",    20.00,  2,   37,    1,    1,   1.000000,   4.470900, 1.1000, 0.9000, 1.1000, 0.9000, 50.0
     136, "HUIMIN              ",   525.00,  1,   37,    1,    1,   0.996440,   0.280600, 1.1000, 0.9000, 1.1000, 0.9000, 50.0
     137, "JIMO                ",   525.00,  1,   37,    1,    1,   0.977800,  14.742400, 1.1000, 0.9000, 1.1000, 0.9000, 50.0
     138, "JINAN               ",   525.00,  1,   37,    1,    1,   0.986750,  -1.743900, 1.1000, 0.9000, 1.1000, 0.9000, 50.0
     139, "JINAN-G             ",    20.00,  2,   37,    1,    1,   1.000000,   7.133300, 1.1000, 0.9000, 1.1000, 0.9000, 50.0
     140, "JIAXIANG            ",   525.00,  1,   37,    1,    1,   1.000230,  -1.167600, 1.1000, 0.9000, 1.1000, 0.9000, 50.0
     141, "JIAXIANG-G          ",    20.00,  2,   37,    1,    1,   1.000000,  -0.789600, 1.1000, 0.9000, 1.1000, 0.9000, 50.0
     142, "JIAODONG            ",   525.00,  1,   37,    1,    1,   0.985130,  10.944900, 1.1000, 0.9000, 1.1000, 0.9000, 50.0
     143, "JINXIANG            ",   525.00,  1,   37,    1,    1,   0.998870,  -1.618300, 1.1000, 0.9000, 1.1000, 0.9000, 50.0
     144, "JUNAN               ",   525.00,  1,   37,    1,    1,   1.000720,   2.905000, 1.1000, 0.9000, 1.1000, 0.9000, 50.0
     145, "JUFENG              ",   525.00,  1,   37,    1,    1,   1.000010,   3.367500, 1.1000, 0.9000, 1.1000, 0.9000, 50.0
     146, "JUFENG-G            ",    20.00,  2,   37,    1,    1,   1.000000,   7.133300, 1.1000, 0.9000, 1.1000, 0.9000, 50.0
     147, "KENDONG             ",   525.00,  1,   37,    1,    1,   0.995630,   2.521200, 1.1000, 0.9000, 1.1000, 0.9000, 50.0
     148, "KUNYU               ",   525.00,  1,   37,    1,    1,   0.994250,  17.061700, 1.1000, 0.9000, 1.1000, 0.9000, 50.0
     149, "KUNYU-G             ",    20.00,  2,   37,    1,    1,   1.000000,   7.133300, 1.1000, 0.9000, 1.1000, 0.9000, 50.0
     150, "LAICHANG            ",   525.00,  1,   37,    1,    1,   0.998220,   5.659900, 1.1000, 0.9000, 1.1000, 0.9000, 50.0
     151, "LAIWU-G             ",    20.00,  2,   37,    1,    1,   1.000000,   6.808000, 1.1000, 0.9000, 1.1000, 0.9000, 50.0
     152, "LAIYANG             ",   525.00,  1,   37,    1,    1,   0.978390,  16.104900, 1.1000, 0.9000, 1.1000, 0.9000, 50.0
     153, "LAIZHOU             ",   525.00,  1,   37,    1,    1,   0.996540,  17.027400, 1.1000, 0.9000, 1.1000, 0.9000, 50.0
     154, "LAIZHOU-G           ",    20.00,  2,   37,    1,    1,   1.000000,  18.810100, 1.1000, 0.9000, 1.1000, 0.9000, 50.0
     155, "LANLING             ",   525.00,  1,   37,    1,    1,   1.001530,   1.215000, 1.1000, 0.9000, 1.1000, 0.9000, 50.0
     156, "LANLING-G           ",    20.00,  2,   37,    1,    1,   1.000000,   7.133300, 1.1000, 0.9000, 1.1000, 0.9000, 50.0
     157, "LANGYA              ",   525.00,  1,   37,    1,    1,   0.989650,   7.366000, 1.1000, 0.9000, 1.1000, 0.9000, 50.0
     158, "LANGYA-G            ",    20.00,  2,   37,    1,    1,   1.000000,   7.133300, 1.1000, 0.9000, 1.1000, 0.9000, 50.0
     159, "LAOSHAN             ",   525.00,  1,   37,    1,    1,   0.979140,  11.890700, 1.1000, 0.9000, 1.1000, 0.9000, 50.0
     160, "LAOSHAN-G           ",    20.00,  2,   37,    1,    1,   1.000000,   7.133300, 1.1000, 0.9000, 1.1000, 0.9000, 50.0
     161, "LIAOCHANG           ",   525.00,  1,   37,    1,    1,   0.997840,   1.619800, 1.1000, 0.9000, 1.1000, 0.9000, 50.0
     162, "LIAOCHANG-G         ",    20.00,  2,   37,    1,    1,   1.000000,   2.366300, 1.1000, 0.9000, 1.1000, 0.9000, 50.0
     163, "LIAOCHENG           ",   525.00,  1,   37,    1,    1,   0.996260,   1.530000, 1.1000, 0.9000, 1.1000, 0.9000, 50.0
     164, "LIAOCHENG-G         ",    20.00,  2,   37,    1,    1,   1.000000,   7.133300, 1.1000, 0.9000, 1.1000, 0.9000, 50.0
     165, "LIAOCHENGNAN        ",   525.00,  1,   37,    1,    1,   0.993410,   0.567700, 1.1000, 0.9000, 1.1000, 0.9000, 50.0
     166, "LINQU               ",   525.00,  1,   37,    1,    1,   0.995610,   4.084900, 1.1000, 0.9000, 1.1000, 0.9000, 50.0
     167, "LINZI               ",   525.00,  1,   37,    1,    1,   0.982710,   1.978500, 1.1000, 0.9000, 1.1000, 0.9000, 50.0
     168, "LINZI-G             ",    20.00,  2,   37,    1,    1,   1.000000,   7.133300, 1.1000, 0.9000, 1.1000, 0.9000, 50.0
     169, "LINGXIAN            ",   525.00,  1,   37,    1,    1,   0.992690,  -0.016600, 1.1000, 0.9000, 1.1000, 0.9000, 50.0
     170, "LONGSHAN            ",   525.00,  1,   37,    1,    1,   0.991290,  -1.464700, 1.1000, 0.9000, 1.1000, 0.9000, 50.0
     171, "LUZHONG             ",   525.00,  1,   37,    1,    1,   0.993170,   3.765800, 1.1000, 0.9000, 1.1000, 0.9000, 50.0
     172, "LUZHONG-G           ",    20.00,  2,   37,    1,    1,   1.000000,   7.133300, 1.1000, 0.9000, 1.1000, 0.9000, 50.0
     173, "YIMENG-PUMP         ",   525.00,  1,   37,    1,    1,   1.001120,   3.367100, 1.1000, 0.9000, 1.1000, 0.9000, 50.0
     174, "YIMENG-PUMPG        ",    13.00,  2,   37,    1,    1,   1.000000,   4.053900, 1.1000, 0.9000, 1.1000, 0.9000, 50.0
     175, "MIZHOU              ",   525.00,  1,   37,    1,    1,   0.993810,   5.229800, 1.1000, 0.9000, 1.1000, 0.9000, 50.0
     176, "MUPING              ",   525.00,  1,   37,    1,    1,   0.987410,  14.175500, 1.1000, 0.9000, 1.1000, 0.9000, 50.0
     177, "PANLONG             ",   525.00,  1,   37,    1,    1,   0.987680,  -1.905800, 1.1000, 0.9000, 1.1000, 0.9000, 50.0
     178, "QIXIA               ",   525.00,  1,   37,    1,    1,   0.983160,  13.211300, 1.1000, 0.9000, 1.1000, 0.9000, 50.0
     179, "QIXIA-G             ",    20.00,  2,   37,    1,    1,   1.000000,   7.133300, 1.1000, 0.9000, 1.1000, 0.9000, 50.0
     180, "QIAOGUAN            ",   525.00,  1,   37,    1,    1,   0.995180,   4.406500, 1.1000, 0.9000, 1.1000, 0.9000, 50.0
     181, "QUANCHENG           ",   525.00,  1,   37,    1,    1,   0.996400,   1.212000, 1.1000, 0.9000, 1.1000, 0.9000, 50.0
     182, "QUANCHENG-G         ",    20.00,  2,   37,    1,    1,   1.000000,   3.800500, 1.1000, 0.9000, 1.1000, 0.9000, 50.0
     183, "QUANCHNG-UHV        ",  1050.00,  1,   37,    1,    1,   0.996330,   1.187300, 1.1000, 0.9000, 1.1000, 0.9000, 50.0
     184, "RIZHAO              ",   525.00,  1,   37,    1,    1,   0.998580,   4.614800, 1.1000, 0.9000, 1.1000, 0.9000, 50.0
     185, "RIZHAO-G            ",    20.00,  2,   37,    1,    1,   1.000000,   7.133300, 1.1000, 0.9000, 1.1000, 0.9000, 50.0
     186, "RULIN               ",   525.00,  1,   37,    1,    1,   0.994750,  -2.483100, 1.1000, 0.9000, 1.1000, 0.9000, 50.0
     187, "RUNZE               ",   525.00,  1,   37,    1,    1,   0.999220,  -1.343200, 1.1000, 0.9000, 1.1000, 0.9000, 50.0
     188, "RUNZE-G             ",    20.00,  2,   37,    1,    1,   1.000000,  -0.603500, 1.1000, 0.9000, 1.1000, 0.9000, 50.0
     189, "SHOUDIAN            ",   525.00,  1,   37,    1,    1,   0.995590,   9.127500, 1.1000, 0.9000, 1.1000, 0.9000, 50.0
     190, "SHOUDIAN-G          ",    20.00,  2,   37,    1,    1,   1.000000,  10.278600, 1.1000, 0.9000, 1.1000, 0.9000, 50.0
     191, "SHOUGUANG           ",   525.00,  1,   37,    1,    1,   0.987920,   7.402600, 1.1000, 0.9000, 1.1000, 0.9000, 50.0
     192, "SHOUGUANG-G         ",    20.00,  2,   37,    1,    1,   1.000000,   7.133300, 1.1000, 0.9000, 1.1000, 0.9000, 50.0
     193, "TAISHAN-PUMP        ",   525.00,  1,   37,    1,    1,   0.996790,  -3.194300, 1.1000, 0.9000, 1.1000, 0.9000, 50.0
     194, "TAISHAN-PMPG       ",    20.00,  2,   37,    1,    1,   1.000000,   7.133300, 1.1000, 0.9000, 1.1000, 0.9000, 50.0
     195, "WEIFANG             ",   525.00,  1,   37,    1,    1,   0.980900,   5.078100, 1.1000, 0.9000, 1.1000, 0.9000, 50.0
     196, "WENTING             ",   525.00,  1,   37,    1,    1,   0.996010,  -2.413100, 1.1000, 0.9000, 1.1000, 0.9000, 50.0
     197, "WENSHAO             ",   525.00,  1,   37,    1,    1,   0.992960,  -0.623500, 1.1000, 0.9000, 1.1000, 0.9000, 50.0
     198, "WENSHANG            ",   525.00,  1,   37,    1,    1,   0.999530,  -2.034500, 1.1000, 0.9000, 1.1000, 0.9000, 50.0
     199, "XINTAI              ",   525.00,  1,   37,    1,    1,   0.996290,   0.447900, 1.1000, 0.9000, 1.1000, 0.9000, 50.0
     200, "YIMENG              ",   525.00,  1,   37,    1,    1,   1.001300,   2.243500, 1.1000, 0.9000, 1.1000, 0.9000, 50.0
     201, "YINAN               ",   525.00,  1,   37,    1,    1,   1.002160,   5.730100, 1.1000, 0.9000, 1.1000, 0.9000, 50.0
     202, "YINAN-UHV           ",  1050.00,  1,   37,    1,    1,   1.004790,   5.601000, 1.1000, 0.9000, 1.1000, 0.9000, 50.0
     203, "YUNCHENG            ",   525.00,  1,   37,    1,    1,   1.001890,   0.861400, 1.1000, 0.9000, 1.1000, 0.9000, 50.0
     204, "YIDU                ",   525.00,  1,   37,    1,    1,   0.985000,   2.061300, 1.1000, 0.9000, 1.1000, 0.9000, 50.0
     205, "YOUCHENG            ",   525.00,  1,   37,    1,    1,   0.995380,   3.124300, 1.1000, 0.9000, 1.1000, 0.9000, 50.0
     206, "YUNHE               ",   525.00,  1,   37,    1,    1,   0.999950,  -1.773900, 1.1000, 0.9000, 1.1000, 0.9000, 50.0
     207, "YUNHE-G             ",    20.00,  2,   37,    1,    1,   1.000000,  -1.395800, 1.1000, 0.9000, 1.1000, 0.9000, 50.0
     208, "YUNCHENG            ",   525.00,  1,   37,    1,    1,   0.996320,  -2.808600, 1.1000, 0.9000, 1.1000, 0.9000, 50.0
     209, "ZAOZHUANG           ",   525.00,  1,   37,    1,    1,   0.999290,   0.791800, 1.1000, 0.9000, 1.1000, 0.9000, 50.0
     210, "ZAOZHUANG-G         ",    20.00,  2,   37,    1,    1,   1.000000,   1.365200, 1.1000, 0.9000, 1.1000, 0.9000, 50.0
     211, "ZAOZHUANGSHI        ",   525.00,  1,   37,    1,    1,   0.999300,   0.524200, 1.1000, 0.9000, 1.1000, 0.9000, 50.0
     212, "ZAOZHNG-UHV         ",  1050.00,  1,   37,    1,    1,   0.999210,   0.793700, 1.1000, 0.9000, 1.1000, 0.9000, 50.0
     213, "CHANGQING           ",   525.00,  1,   37,    1,    1,   0.989640,  -1.185900, 1.1000, 0.9000, 1.1000, 0.9000, 50.0
     214, "ZIBO                ",   525.00,  1,   37,    1,    1,   0.981660,  -0.082700, 1.1000, 0.9000, 1.1000, 0.9000, 50.0
     215, "ZICHUAN             ",   525.00,  1,   37,    1,    1,   0.996750,  -0.879700, 1.1000, 0.9000, 1.1000, 0.9000, 50.0
     216, "ZOUXIAN             ",   525.00,  1,   37,    1,    1,   1.000760,  -0.271400, 1.1000, 0.9000, 1.1000, 0.9000, 50.0
     217, "ZHOUXIAN-G          ",    20.00,  3,   37,    1,    1,   1.000000,   0.000000, 1.1000, 0.9000, 1.1000, 0.9000, 50.0
     301, "HUANGHUA            ",   525.00,  1,   13,    1,    1,   1.000340,   7.293100, 1.1000, 0.9000, 1.1000, 0.9000, 50.0
     302, "HUANGHUA-G          ",    20.00,  2,   13,    1,    1,   1.000000,   8.152300, 1.1000, 0.9000, 1.1000, 0.9000, 50.0
     303, "XINGTAI-G           ",    20.00,  2,   13,    1,    1,   1.000000,   0.776300, 1.1000, 0.9000, 1.1000, 0.9000, 50.0
     304, "XINAN               ",   525.00,  1,   13,    1,    1,   1.001090,   6.274700, 1.1000, 0.9000, 1.1000, 0.9000, 50.0
     305, "XINAN-G             ",    20.00,  2,   37,    1,    1,   1.000000,   7.133300, 1.1000, 0.9000, 1.1000, 0.9000, 50.0
     306, "XINGTAI-UHV         ",  1050.00,  1,   13,    1,    1,   1.001190,   0.433000, 1.1000, 0.9000, 1.1000, 0.9000, 50.0
     401, "HAIHE-UHV           ",  1050.00,  1,   12,    1,    1,   0.998130,   1.184600, 1.1000, 0.9000, 1.1000, 0.9000, 50.0
     501, "ZHUMADIAN-G         ",    20.00,  2,   41,    1,    1,   1.000000,   0.319200, 1.1000, 0.9000, 1.1000, 0.9000, 50.0
     502, "ZHUMADN-UHV         ",  1050.00,  1,   41,    1,    1,   0.989030,  -0.028300, 1.1000, 0.9000, 1.1000, 0.9000, 50.0
     601, "YINCHUAN-G          ",    20.00,  3,   64,    1,    1,   1.000000,   0.000000, 1.1000, 0.9000, 1.1000, 0.9000, 50.0
     602, "YINCHUAN-CVT        ",   345.00,  1,   64,    1,    1,   0.980920,  -2.337100, 1.1000, 0.9000, 1.1000, 0.9000, 50.0
     701, "MENGDONG-G          ",    20.00,  3,   15,    1,    1,   1.000000,   0.000000, 1.1000, 0.9000, 1.1000, 0.9000, 50.0
     702, "SHANGHAIMIAO        ",    20.00,  3,   15,    1,    1,   1.000000,   0.000000, 1.1000, 0.9000, 1.1000, 0.9000, 50.0
     703, "YIKEZHAO            ",   800.00,  1,   15,    1,    1,   1.005890,  -6.851500, 1.1000, 0.9000, 1.1000, 0.9000, 50.0
     704, "ZHALUTE             ",   525.00,  1,   15,    1,    1,   0.995090,  -6.926300, 1.1000, 0.9000, 1.1000, 0.9000, 50.0
0 / END OF BUS DATA, BEGIN LOAD DATA
     101,    "1", 1,       37,        1,    379.2,      152,        0,        0,        0,        0,        1,        0
     102,    "1", 1,       37,        1,    786.9,    220.1,        0,        0,        0,        0,        1,        0
     105,    "1", 1,       37,        1,    372.9,    109.9,        0,        0,        0,        0,        1,        0
     106,    "1", 1,       37,        1,     1289,    305.6,        0,        0,        0,        0,        1,        0
     108,    "1", 1,       37,        1,      126,    165.6,        0,        0,        0,        0,        1,        0
     110,    "1", 1,       37,        1,    886.4,    141.7,        0,        0,        0,        0,        1,        0
     111,    "1", 1,       37,        1,    732.7,    170.1,        0,        0,        0,        0,        1,        0
     112,    "1", 1,       37,        1,      841,    105.8,        0,        0,        0,        0,        1,        0
     114,    "1", 1,       37,        1,    411.6,      160,        0,        0,        0,        0,        1,        0
     117,    "1", 1,       37,        1,    566.2,    118.8,        0,        0,        0,        0,        1,        0
     118,    "1", 1,       37,        1,     1409,    243.9,        0,        0,        0,        0,        1,        0
     122,    "1", 1,       37,        1,    350.4,    104.8,        0,        0,        0,        0,        1,        0
     123,    "1", 1,       37,        1,    454.3,     15.7,        0,        0,        0,        0,        1,        0
     124,    "1", 1,       37,        1,     1229,    330.9,        0,        0,        0,        0,        1,        0
     127,    "1", 1,       37,        1,    620.5,    182.8,        0,        0,        0,        0,        1,        0
     128,    "1", 1,       37,        1,    903.3,    378.3,        0,        0,        0,        0,        1,        0
     133,    "1", 1,       37,        1,     3000,      700,        0,        0,        0,        0,        1,        0
     136,    "1", 1,       37,        1,    959.8,    106.2,        0,        0,        0,        0,        1,        0
     137,    "1", 1,       37,        1,    549.3,    120.3,        0,        0,        0,        0,        1,        0
     138,    "1", 1,       37,        1,    729.7,     59.3,        0,        0,        0,        0,        1,        0
     140,    "1", 1,       37,        1,       36,       12,        0,        0,        0,        0,        1,        0
     142,    "1", 1,       37,        1,      990,    163.6,        0,        0,        0,        0,        1,        0
     143,    "1", 1,       37,        1,    763.2,    160.6,        0,        0,        0,        0,        1,        0
     144,    "1", 1,       37,        1,    843.1,    198.6,        0,        0,        0,        0,        1,        0
     145,    "1", 1,       37,        1,    571.2,    188.3,        0,        0,        0,        0,        1,        0
     147,    "1", 1,       37,        1,    423.3,     92.1,        0,        0,        0,        0,        1,        0
     148,    "1", 1,       37,        1,    253.1,    139.4,        0,        0,        0,        0,        1,        0
     152,    "1", 1,       37,        1,     1825,    367.1,        0,        0,        0,        0,        1,        0
     155,    "1", 1,       37,        1,     1022,    175.2,        0,        0,        0,        0,        1,        0
     157,    "1", 1,       37,        1,    526.9,      155,        0,        0,        0,        0,        1,        0
     159,    "1", 1,       37,        1,     2107,    197.5,        0,        0,        0,        0,        1,        0
     163,    "1", 1,       37,        1,    373.3,    197.8,        0,        0,        0,        0,        1,        0
     165,    "1", 1,       37,        1,    405.7,    267.7,        0,        0,        0,        0,        1,        0
     166,    "1", 1,       37,        1,    534.9,     58.4,        0,        0,        0,        0,        1,        0
     167,    "1", 1,       37,        1,     1226,    379.2,        0,        0,        0,        0,        1,        0
     169,    "1", 1,       37,        1,     1065,      104,        0,        0,        0,        0,        1,        0
     170,    "1", 1,       37,        1,     1017,    149.3,        0,        0,        0,        0,        1,        0
     171,    "1", 1,       37,        1,     1648,    461.4,        0,        0,        0,        0,        1,        0
     175,    "1", 1,       37,        1,    912.6,    188.4,        0,        0,        0,        0,        1,        0
     176,    "1", 1,       37,        1,    927.9,      113,        0,        0,        0,        0,        1,        0
     177,    "1", 1,       37,        1,    881.4,    134.1,        0,        0,        0,        0,        1,        0
     178,    "1", 1,       37,        1,     1025,      205,        0,        0,        0,        0,        1,        0
     180,    "1", 1,       37,        1,    592.8,     11.6,        0,        0,        0,        0,        1,        0
     183,    "1", 1,       37,        1,     3000,     1100,        0,        0,        0,        0,        1,        0
     184,    "1", 1,       37,        1,      821,    165.6,        0,        0,        0,        0,        1,        0
     184,    "2", 1,       37,        1,    155.6,     46.4,        0,        0,        0,        0,        1,        0
     186,    "1", 1,       37,        1,      636,    156.4,        0,        0,        0,        0,        1,        0
     191,    "1", 1,       37,        1,     1887,    597.6,        0,        0,        0,        0,        1,        0
     193,    "1", 1,       37,        1,     1298,    244.4,        0,        0,        0,        0,        1,        0
     195,    "1", 1,       37,        1,    846.3,    270.4,        0,        0,        0,        0,        1,        0
     196,    "1", 1,       37,        1,      849,    203.6,        0,        0,        0,        0,        1,        0
     197,    "1", 1,       37,        1,     1235,    226.2,        0,        0,        0,        0,        1,        0
     198,    "1", 1,       37,        1,      413,    137.9,        0,        0,        0,        0,        1,        0
     199,    "1", 1,       37,        1,    844.5,    193.1,        0,        0,        0,        0,        1,        0
     200,    "1", 1,       37,        1,     1399,    172.3,        0,        0,        0,        0,        1,        0
     201,    "1", 1,       37,        1,     1122,    378.2,        0,        0,        0,        0,        1,        0
     203,    "1", 1,       37,        1,    161.4,     63.4,        0,        0,        0,        0,        1,        0
     204,    "1", 1,       37,        1,     1461,    243.3,        0,        0,        0,        0,        1,        0
     205,    "1", 1,       37,        1,      568,      135,        0,        0,        0,        0,        1,        0
     208,    "1", 1,       37,        1,     1095,    263.4,        0,        0,        0,        0,        1,        0
     211,    "1", 1,       37,        1,    314.9,    135.8,        0,        0,        0,        0,        1,        0
     212,    "1", 1,       37,        1,     1900,      500,        0,        0,        0,        0,        1,        0
     213,    "1", 1,       37,        1,    540.2,    171.3,        0,        0,        0,        0,        1,        0
     214,    "1", 1,       37,        1,     1056,    252.3,        0,        0,        0,        0,        1,        0
     215,    "1", 1,       37,        1,    705.5,    110.7,        0,        0,        0,        0,        1,        0
0 / END OF LOAD DATA, BEGIN FIXED SHUNT DATA
     107,    "1", 1,     0.000000, -1100.000000
     121,    "1", 1,     0.000000,  -500.000000
     125,    "1", 1,     0.000000,  2000.000000
     126,    "1", 1,     0.000000,  2000.000000
     142,    "1", 1,     0.000000,  2000.000000
     201,    "1", 1,     0.000000,  2000.000000
     202,    "1", 1,     0.000000,  2000.000000
     306,    "1", 1,     0.000000,  -200.000000
     703,    "1", 1,     0.000000,  4000.000000
     704,    "1", 1,     0.000000,  4000.000000
0 / END OF FIXED SHUNT DATA, BEGIN GENERATOR DATA
     104,    "1",  1000.000000,    78.846000,  9999.000000, -9999.000000, 1.000000,     1104,  1120.0000,  0.000000,  0.150000, 0.00, 0.00, 1.00, 1,100.00,  9999.000000, -9999.000000, 1, 1.000000, 0, 0.000000, 0, 0.000000, 0, 0.000000, 0, 0.0, 0
     109,    "1",  1800.000000,   381.300000,  9999.000000, -9999.000000, 1.000000,     1109,  2000.0000,  0.000000,  0.150000, 0.00, 0.00, 1.00, 1,100.00,  9999.000000,     0.000000, 1, 1.000000, 0, 0.000000, 0, 0.000000, 0, 0.000000, 0, 0.0, 0
     113,    "1",  1350.000000,   -97.940000,  9999.000000, -9999.000000, 1.000000,     1113,  1700.0000,  0.000000,  0.150000, 0.00, 0.00, 1.00, 1,100.00,  9999.000000,     0.000000, 1, 1.000000, 0, 0.000000, 0, 0.000000, 0, 0.000000, 0, 0.0, 0
     116,    "1",  1000.000000,   195.673000,  9999.000000, -9999.000000, 1.000000,     1116,  1120.0000,  0.000000,  0.150000, 0.00, 0.00, 1.00, 1,100.00,  9999.000000,     0.000000, 1, 1.000000, 0, 0.000000, 0, 0.000000, 0, 0.000000, 0, 0.0, 0
     119,    "1",   500.000000,  -117.423000,  9999.000000, -9999.000000, 1.000000,     1119,   744.0000,  0.000000,  0.150000, 0.00, 0.00, 1.00, 1,100.00,  9999.000000,     0.000000, 1, 1.000000, 0, 0.000000, 0, 0.000000, 0, 0.000000, 0, 0.0, 0
     130,    "1",  1520.000000,  1672.750000,  9999.000000, -9999.000000, 1.000000,     1130,  1800.0000,  0.000000,  0.150000, 0.00, 0.00, 1.00, 1,100.00,  9999.000000,     0.000000, 1, 1.000000, 0, 0.000000, 0, 0.000000, 0, 0.000000, 0, 0.0, 0
     132,    "1",  1000.000000,   637.416000,  9999.000000, -9999.000000, 1.000000,     1132,  1120.0000,  0.000000,  0.150000, 0.00, 0.00, 1.00, 1,100.00,  9999.000000,     0.000000, 1, 1.000000, 0, 0.000000, 0, 0.000000, 0, 0.000000, 0, 0.0, 0
     135,    "1",  1500.000000,   172.853000,  9999.000000, -9999.000000, 1.000000,     1135,  2700.0000,  0.000000,  0.150000, 0.00, 0.00, 1.00, 1,100.00,  9999.000000,     0.000000, 1, 1.000000, 0, 0.000000, 0, 0.000000, 0, 0.000000, 0, 0.0, 0
     139,    "1",  1655.000000,   -97.940000,  9999.000000, -9999.000000, 1.000000,     1139,  1700.0000,  0.000000,  0.150000, 0.00, 0.00, 1.00, 1,100.00,  9999.000000,     0.000000, 1, 1.000000, 0, 0.000000, 0, 0.000000, 0, 0.000000, 0, 0.0, 0
     141,    "1",   660.000000,   -21.164000,  9999.000000, -9999.000000, 1.000000,     1141,  1000.0000,  0.000000,  0.150000, 0.00, 0.00, 1.00, 1,100.00,  9999.000000,     0.000000, 1, 1.000000, 0, 0.000000, 0, 0.000000, 0, 0.000000, 0, 0.0, 0
     146,    "1",  1200.000000,   -97.940000,  9999.000000, -9999.000000, 1.000000,     1146,  1700.0000,  0.000000,  0.150000, 0.00, 0.00, 1.00, 1,100.00,  9999.000000,     0.000000, 1, 1.000000, 0, 0.000000, 0, 0.000000, 0, 0.000000, 0, 0.0, 0
     149,    "1",   640.000000,  -117.423000,  9999.000000, -9999.000000, 1.000000,     1149,   744.0000,  0.000000,  0.150000, 0.00, 0.00, 1.00, 1,100.00,  9999.000000,     0.000000, 1, 1.000000, 0, 0.000000, 0, 0.000000, 0, 0.000000, 0, 0.0, 0
     151,    "1",  1500.000000,   198.320000,  9999.000000, -9999.000000, 1.000000,     1151,  2240.0000,  0.000000,  0.150000, 0.00, 0.00, 1.00, 1,100.00,  9999.000000,     0.000000, 1, 1.000000, 0, 0.000000, 0, 0.000000, 0, 0.000000, 0, 0.0, 0
     154,    "1",  1500.000000,   394.711000,  9999.000000, -9999.000000, 1.000000,     1154,  1700.0000,  0.000000,  0.150000, 0.00, 0.00, 1.00, 1,100.00,  9999.000000,     0.000000, 1, 1.000000, 0, 0.000000, 0, 0.000000, 0, 0.000000, 0, 0.0, 0
     156,    "1",   570.000000,  -117.423000,  9999.000000, -9999.000000, 1.000000,     1156,   744.0000,  0.000000,  0.150000, 0.00, 0.00, 1.00, 1,100.00,  9999.000000,     0.000000, 1, 1.000000, 0, 0.000000, 0, 0.000000, 0, 0.000000, 0, 0.0, 0
     158,    "1",   895.000000,   637.416000,  9999.000000, -9999.000000, 1.000000,     1158,  1120.0000,  0.000000,  0.150000, 0.00, 0.00, 1.00, 1,100.00,  9999.000000,     0.000000, 1, 1.000000, 0, 0.000000, 0, 0.000000, 0, 0.000000, 0, 0.0, 0
     160,    "1",   940.000000,   637.416000,  9999.000000, -9999.000000, 1.000000,     1160,  1120.0000,  0.000000,  0.150000, 0.00, 0.00, 1.00, 1,100.00,  9999.000000,     0.000000, 1, 1.000000, 0, 0.000000, 0, 0.000000, 0, 0.000000, 0, 0.0, 0
     162,    "1",  1300.000000,   224.936000,  9999.000000, -9999.000000, 1.000000,     1162,  1500.0000,  0.000000,  0.150000, 0.00, 0.00, 1.00, 1,100.00,  9999.000000,     0.000000, 1, 1.000000, 0, 0.000000, 0, 0.000000, 0, 0.000000, 0, 0.0, 0
     164,    "1",  1500.000000,   -97.940000,  9999.000000, -9999.000000, 1.000000,     1164,  1700.0000,  0.000000,  0.150000, 0.00, 0.00, 1.00, 1,100.00,  9999.000000,     0.000000, 1, 1.000000, 0, 0.000000, 0, 0.000000, 0, 0.000000, 0, 0.0, 0
     168,    "1",   870.000000,   637.416000,  9999.000000, -9999.000000, 1.000000,     1168,  1120.0000,  0.000000,  0.150000, 0.00, 0.00, 1.00, 1,100.00,  9999.000000,     0.000000, 1, 1.000000, 0, 0.000000, 0, 0.000000, 0, 0.000000, 0, 0.0, 0
     172,    "1",   660.000000,   637.416000,  9999.000000, -9999.000000, 1.000000,     1172,  1120.0000,  0.000000,  0.150000, 0.00, 0.00, 1.00, 1,100.00,  9999.000000,     0.000000, 1, 1.000000, 0, 0.000000, 0, 0.000000, 0, 0.000000, 0, 0.0, 0
     174,    "1",  1200.000000,  -104.401000,  9999.000000, -9999.000000, 1.000000,     1174,  1500.0000,  0.000000,  0.150000, 0.00, 0.00, 1.00, 1,100.00,  9999.000000,     0.000000, 1, 1.000000, 0, 0.000000, 0, 0.000000, 0, 0.000000, 0, 0.0, 0
     179,    "1",  1500.000000,   -97.940000,  9999.000000, -9999.000000, 1.000000,     1179,  1700.0000,  0.000000,  0.150000, 0.00, 0.00, 1.00, 1,100.00,  9999.000000,     0.000000, 1, 1.000000, 0, 0.000000, 0, 0.000000, 0, 0.000000, 0, 0.0, 0
     182,    "1",  1500.000000,   461.368000,  9999.000000, -9999.000000, 1.000000,     1182,  1700.0000,  0.000000,  0.150000, 0.00, 0.00, 1.00, 1,100.00,  9999.000000,     0.000000, 1, 1.000000, 0, 0.000000, 0, 0.000000, 0, 0.000000, 0, 0.0, 0
     185,    "1",  1000.000000,   637.416000,  9999.000000, -9999.000000, 1.000000,     1185,  1120.0000,  0.000000,  0.150000, 0.00, 0.00, 1.00, 1,100.00,  9999.000000,     0.000000, 1, 1.000000, 0, 0.000000, 0, 0.000000, 0, 0.000000, 0, 0.0, 0
     188,    "1",  1290.000000,    86.563000,  9999.000000, -9999.000000, 1.000000,     1188,  1500.0000,  0.000000,  0.150000, 0.00, 0.00, 1.00, 1,100.00,  9999.000000,     0.000000, 1, 1.000000, 0, 0.000000, 0, 0.000000, 0, 0.000000, 0, 0.0, 0
     190,    "1",  2000.000000,   461.429000,  9999.000000, -9999.000000, 1.000000,     1190,  2240.0000,  0.000000,  0.150000, 0.00, 0.00, 1.00, 1,100.00,  9999.000000,     0.000000, 1, 1.000000, 0, 0.000000, 0, 0.000000, 0, 0.000000, 0, 0.0, 0
     192,    "1",   600.000000,  -117.423000,  9999.000000, -9999.000000, 1.000000,     1192,   744.0000,  0.000000,  0.150000, 0.00, 0.00, 1.00, 1,100.00,  9999.000000,     0.000000, 1, 1.000000, 0, 0.000000, 0, 0.000000, 0, 0.000000, 0, 0.0, 0
     194,    "1",   700.000000,   637.416000,  9999.000000, -9999.000000, 1.000000,     1194,  1120.0000,  0.000000,  0.150000, 0.00, 0.00, 1.00, 1,100.00,  9999.000000,     0.000000, 1, 1.000000, 0, 0.000000, 0, 0.000000, 0, 0.000000, 0, 0.0, 0
     207,    "1",   660.000000,     7.082000,  9999.000000, -9999.000000, 1.000000,     1207,   744.0000,  0.000000,  0.150000, 0.00, 0.00, 1.00, 1,100.00,  9999.000000,     0.000000, 1, 1.000000, 0, 0.000000, 0, 0.000000, 0, 0.000000, 0, 0.0, 0
     210,    "1",  1000.000000,    76.099000,  9999.000000, -9999.000000, 1.000000,     1210,  1120.0000,  0.000000,  0.150000, 0.00, 0.00, 1.00, 1,100.00,  9999.000000,     0.000000, 1, 1.000000, 0, 0.000000, 0, 0.000000, 0, 0.000000, 0, 0.0, 0
     217,    "1",   474.005000,   -74.886000,  9999.000000, -9999.000000, 1.000000,     1217,  1120.0000,  0.000000,  0.150000, 0.00, 0.00, 1.00, 1,100.00,  9999.000000,     0.000000, 1, 1.000000, 0, 0.000000, 0, 0.000000, 0, 0.000000, 0, 0.0, 0
     302,    "1",  1500.000000,   -22.915000,  9999.000000, -9999.000000, 1.000000,     1302,  1700.0000,  0.000000,  0.150000, 0.00, 0.00, 1.00, 1,100.00,  9999.000000,     0.000000, 1, 1.000000, 0, 0.000000, 0, 0.000000, 0, 0.000000, 0, 0.0, 0
     303,    "1",   600.000000,  -117.423000,  9999.000000, -9999.000000, 1.000000,     1303,   744.0000,  0.000000,  0.150000, 0.00, 0.00, 1.00, 1,100.00,  9999.000000,     0.000000, 1, 1.000000, 0, 0.000000, 0, 0.000000, 0, 0.000000, 0, 0.0, 0
     305,    "1",  1500.000000,   -97.940000,  9999.000000, -9999.000000, 1.000000,     1305,  1700.0000,  0.000000,  0.150000, 0.00, 0.00, 1.00, 1,100.00,  9999.000000,     0.000000, 1, 1.000000, 0, 0.000000, 0, 0.000000, 0, 0.000000, 0, 0.0, 0
     501,    "1",   600.000000,  1098.938000,  9999.000000, -9999.000000, 1.000000,     1501,   744.0000,  0.000000,  0.150000, 0.00, 0.00, 1.00, 1,100.00,  9999.000000,     0.000000, 1, 1.000000, 0, 0.000000, 0, 0.000000, 0, 0.000000, 0, 0.0, 0
     601,    "1",  4000.000000,  1989.618000,  9999.000000, -9999.000000, 1.000000,     1601,  4480.0000,  0.000000,  0.150000, 0.00, 0.00, 1.00, 1,100.00,  9999.000000,     0.000000, 1, 1.000000, 0, 0.000000, 0, 0.000000, 0, 0.000000, 0, 0.0, 0
     701,    "1",  8000.020000,   811.732000,  9999.000000, -9999.000000, 1.000000,     1701,  8960.0000,  0.000000,  0.150000, 0.00, 0.00, 1.00, 1,100.00,  9999.000000, -9999.000000, 1, 1.000000, 0, 0.000000, 0, 0.000000, 0, 0.000000, 0, 0.0, 0
     702,    "1",  7999.998000,    86.207000,  9999.000000, -9999.000000, 1.000000,     1702,  8960.0000,  0.000000,  0.150000, 0.00, 0.00, 1.00, 1,100.00,  9999.000000, -9999.000000, 1, 1.000000, 0, 0.000000, 0, 0.000000, 0, 0.000000, 0, 0.0, 0
0 / END OF GENERATOR DATA, BEGIN TRANSMISSION LINE DATA
     101,      105,    "1",     0.000220,    0.004980,     0.576260,   3964.660,      0.000,      0.000,     0.000000,     0.000000,     0.000000,     0.000000, 1, 1,  50.00,    1,  1.000,    0,  0.000,    0,  0.000,    0,  0.000
     101,      112,    "1",     0.000560,    0.005600,     0.618300,   2582.490,      0.000,      0.000,     0.000000,     0.000000,     0.000000,     0.000000, 1, 1,  55.00,    1,  1.000,    0,  0.000,    0,  0.000,    0,  0.000
     134,      101,    "1",     0.000290,    0.003050,     0.337960,   2582.490,      0.000,      0.000,     0.000000,     0.000000,     0.000000,     0.000000, 1, 1,  30.00,    1,  1.000,    0,  0.000,    0,  0.000,    0,  0.000
     102,      117,    "1",     0.000240,    0.005480,     0.633880,   3964.660,      0.000,      0.000,     0.000000,     0.000000,     0.000000,     0.000000, 1, 1,  55.00,    1,  1.000,    0,  0.000,    0,  0.000,    0,  0.000
     102,      117,    "2",     0.000240,    0.005480,     0.633880,   3964.660,      0.000,      0.000,     0.000000,     0.000000,     0.000000,     0.000000, 1, 1,  55.00,    1,  1.000,    0,  0.000,    0,  0.000,    0,  0.000
     102,      205,    "1",     0.000420,    0.005910,     0.732700,      0.000,      0.000,      0.000,     0.000000,     0.000000,     0.000000,     0.000000, 1, 1,   1.00,    1,  1.000,    0,  0.000,    0,  0.000,    0,  0.000
     215,      102,    "1",     0.000710,    0.011770,     1.394840,   3073.520,      0.000,      0.000,     0.000000,     0.000000,     0.000000,     0.000000, 1, 1,   0.00,    1,  1.000,    0,  0.000,    0,  0.000,    0,  0.000
     301,      102,    "1",     0.000510,    0.011100,     1.256320,      0.000,      0.000,      0.000,     0.000000,     0.000000,     0.000000,     0.000000, 1, 1, 113.00,    1,  1.000,    0,  0.000,    0,  0.000,    0,  0.000
     301,      102,    "2",     0.000510,    0.011100,     1.256320,      0.000,      0.000,      0.000,     0.000000,     0.000000,     0.000000,     0.000000, 1, 1, 113.00,    1,  1.000,    0,  0.000,    0,  0.000,    0,  0.000
     136,      103,    "1",     0.000990,    0.014970,     1.715600,   3073.520,      0.000,      0.000,     0.000000,     0.000000,     0.000000,     0.000000, 1, 1,   0.00,    1,  1.000,    0,  0.000,    0,  0.000,    0,  0.000
     147,      103,    "1",     0.000330,    0.007050,     0.905420,   4317.480,      0.000,      0.000,     0.000000,     0.000000,     0.000000,     0.000000, 1, 1,   0.40,    1,  1.000,    0,  0.000,    0,  0.000,    0,  0.000
     205,      103,    "1",     0.000250,    0.003560,     0.393540,   3073.520,      0.000,      0.000,     0.000000,     0.000000,     0.000000,     0.000000, 1, 1,   0.40,    1,  1.000,    0,  0.000,    0,  0.000,    0,  0.000
     205,      103,    "2",     0.000250,    0.003560,     0.393540,   3073.520,      0.000,      0.000,     0.000000,     0.000000,     0.000000,     0.000000, 1, 1,   0.40,    1,  1.000,    0,  0.000,    0,  0.000,    0,  0.000
     105,      163,    "1",     0.000240,    0.005480,     0.633880,   3964.660,      0.000,      0.000,     0.000000,     0.000000,     0.000000,     0.000000, 1, 1,  55.00,    1,  1.000,    0,  0.000,    0,  0.000,    0,  0.000
     105,      197,    "1",     0.000510,    0.011450,     1.325400,   3964.660,      0.000,      0.000,     0.000000,     0.000000,     0.000000,     0.000000, 1, 1, 115.00,    1,  1.000,    0,  0.000,    0,  0.000,    0,  0.000
     106,      122,    "1",     0.000220,    0.004980,     0.576260,   3964.660,      0.000,      0.000,     0.000000,     0.000000,     0.000000,     0.000000, 1, 1,  50.00,    1,  1.000,    0,  0.000,    0,  0.000,    0,  0.000
     106,      122,    "2",     0.000220,    0.004980,     0.576260,   3964.660,      0.000,      0.000,     0.000000,     0.000000,     0.000000,     0.000000, 1, 1,  50.00,    1,  1.000,    0,  0.000,    0,  0.000,    0,  0.000
     106,      166,    "1",     0.000510,    0.007140,     0.757660,   3106.260,      0.000,      0.000,     0.000000,     0.000000,     0.000000,     0.000000, 1, 1,  70.00,    1,  1.000,    0,  0.000,    0,  0.000,    0,  0.000
     106,      166,    "2",     0.000510,    0.007140,     0.757660,   3106.260,      0.000,      0.000,     0.000000,     0.000000,     0.000000,     0.000000, 1, 1,  70.00,    1,  1.000,    0,  0.000,    0,  0.000,    0,  0.000
     106,      175,    "1",     0.000220,    0.004980,     0.576260,   3964.660,      0.000,      0.000,     0.000000,     0.000000,     0.000000,     0.000000, 1, 1,  50.00,    1,  1.000,    0,  0.000,    0,  0.000,    0,  0.000
     106,      175,    "2",     0.000220,    0.004980,     0.576260,   3964.660,      0.000,      0.000,     0.000000,     0.000000,     0.000000,     0.000000, 1, 1,  50.00,    1,  1.000,    0,  0.000,    0,  0.000,    0,  0.000
     106,      180,    "1",     0.000070,    0.001490,     0.172880,   3964.660,      0.000,      0.000,     0.000000,     0.000000,     0.000000,     0.000000, 1, 1,  15.00,    1,  1.000,    0,  0.000,    0,  0.000,    0,  0.000
     106,      180,    "2",     0.000070,    0.001490,     0.172880,   3964.660,      0.000,      0.000,     0.000000,     0.000000,     0.000000,     0.000000, 1, 1,  15.00,    1,  1.000,    0,  0.000,    0,  0.000,    0,  0.000
     121,      107,    "1",     0.000080,    0.002910,     6.284200,  17269.900,      0.000,      0.000,     0.000000,     0.000000,     0.000000,    -4.800000, 1, 1, 126.00,    1,  1.000,    0,  0.000,    0,  0.000,    0,  0.000
     121,      107,    "2",     0.000080,    0.002910,     6.284200,  17269.900,      0.000,      0.000,     0.000000,    -4.800000,     0.000000,     0.000000, 1, 1, 126.00,    1,  1.000,    0,  0.000,    0,  0.000,    0,  0.000
     107,      126,    "1",     0.000030,    0.001220,     2.643400,  17269.900,      0.000,      0.000,     0.000000,     0.000000,     0.000000,     0.000000, 1, 1,  53.00,    1,  1.000,    0,  0.000,    0,  0.000,    0,  0.000
     107,      126,    "2",     0.000030,    0.001220,     2.643400,  17269.900,      0.000,      0.000,     0.000000,     0.000000,     0.000000,     0.000000, 1, 1,  53.00,    1,  1.000,    0,  0.000,    0,  0.000,    0,  0.000
     183,      107,    "1",     0.000130,    0.005150,    11.122200,  17269.900,      0.000,      0.000,     0.000000,    -4.370000,     0.000000,    -4.370000, 1, 1, 223.00,    1,  1.000,    0,  0.000,    0,  0.000,    0,  0.000
     183,      107,    "2",     0.000130,    0.005150,    11.122200,  17269.900,      0.000,      0.000,     0.000000,    -4.370000,     0.000000,    -4.370000, 1, 1, 223.00,    1,  1.000,    0,  0.000,    0,  0.000,    0,  0.000
     148,      108,    "1",     0.000100,    0.001350,     0.142880,   3106.260,      0.000,      0.000,     0.000000,     0.000000,     0.000000,     0.000000, 1, 1,  13.20,    1,  1.000,    0,  0.000,    0,  0.000,    0,  0.000
     148,      108,    "2",     0.000100,    0.001350,     0.142880,   3106.260,      0.000,      0.000,     0.000000,     0.000000,     0.000000,     0.000000, 1, 1,  13.20,    1,  1.000,    0,  0.000,    0,  0.000,    0,  0.000
     124,      110,    "1",     0.000440,    0.006150,     0.680360,      0.000,      0.000,      0.000,     0.000000,     0.000000,     0.000000,     0.000000, 1, 1,  60.50,    1,  1.000,    0,  0.000,    0,  0.000,    0,  0.000
     110,      129,    "1",     0.000660,    0.014940,     1.728780,   3964.660,      0.000,      0.000,     0.000000,     0.000000,     0.000000,     0.000000, 1, 1, 150.00,    1,  1.000,    0,  0.000,    0,  0.000,    0,  0.000
     110,      129,    "2",     0.000660,    0.014940,     1.728780,   3964.660,      0.000,      0.000,     0.000000,     0.000000,     0.000000,     0.000000, 1, 1, 150.00,    1,  1.000,    0,  0.000,    0,  0.000,    0,  0.000
     110,      142,    "1",     0.000360,    0.004300,     0.557100,      0.000,      0.000,      0.000,     0.000000,     0.000000,     0.000000,     0.000000, 1, 1,   1.00,    1,  1.000,    0,  0.000,    0,  0.000,    0,  0.000
     110,      152,    "1",     0.001040,    0.008350,     1.096120,      0.000,      0.000,      0.000,     0.000000,     0.000000,     0.000000,     0.000000, 1, 1,   1.00,    1,  1.000,    0,  0.000,    0,  0.000,    0,  0.000
     195,      110,    "1",     0.000690,    0.006120,     0.748200,      0.000,      0.000,      0.000,     0.000000,     0.000000,     0.000000,     0.000000, 1, 1,   1.00,    1,  1.000,    0,  0.000,    0,  0.000,    0,  0.000
     111,      193,    "1",     0.000290,    0.003640,     0.768920,   3873.730,      0.000,      0.000,     0.000000,     0.000000,     0.000000,     0.000000, 1, 1,  50.00,    1,  1.000,    0,  0.000,    0,  0.000,    0,  0.000
     208,      111,    "1",     0.000630,    0.007780,     1.645480,   3873.730,      0.000,      0.000,     0.000000,     0.000000,     0.000000,     0.000000, 1, 1, 107.00,    1,  1.000,    0,  0.000,    0,  0.000,    0,  0.000
     169,      112,    "1",     0.000200,    0.004480,     0.518640,   3964.660,      0.000,      0.000,     0.000000,     0.000000,     0.000000,     0.000000, 1, 1,  45.00,    1,  1.000,    0,  0.000,    0,  0.000,    0,  0.000
     169,      112,    "2",     0.000200,    0.004480,     0.518640,   3964.660,      0.000,      0.000,     0.000000,     0.000000,     0.000000,     0.000000, 1, 1,  45.00,    1,  1.000,    0,  0.000,    0,  0.000,    0,  0.000
     112,      197,    "1",     0.000320,    0.003440,     0.420280,      0.000,      0.000,      0.000,     0.000000,     0.000000,     0.000000,     0.000000, 1, 1,   1.00,    1,  1.000,    0,  0.000,    0,  0.000,    0,  0.000
     161,      114,    "1",     0.000480,    0.007110,     0.764680,   3106.260,      0.000,      0.000,     0.000000,     0.000000,     0.000000,     0.000000, 1, 1,  70.00,    1,  1.000,    0,  0.000,    0,  0.000,    0,  0.000
     165,      114,    "1",     0.000330,    0.007470,     0.864380,   3964.660,      0.000,      0.000,     0.000000,     0.000000,     0.000000,     0.000000, 1, 1,  75.00,    1,  1.000,    0,  0.000,    0,  0.000,    0,  0.000
     165,      114,    "2",     0.000330,    0.007470,     0.864380,   3964.660,      0.000,      0.000,     0.000000,     0.000000,     0.000000,     0.000000, 1, 1,  75.00,    1,  1.000,    0,  0.000,    0,  0.000,    0,  0.000
     114,      213,    "1",     0.000330,    0.005070,     0.548200,   3106.260,      0.000,      0.000,     0.000000,     0.000000,     0.000000,     0.000000, 1, 1,  50.00,    1,  1.000,    0,  0.000,    0,  0.000,    0,  0.000
     128,      115,    "1",     0.000130,    0.002990,     0.345760,   3964.660,      0.000,      0.000,     0.000000,     0.000000,     0.000000,     0.000000, 1, 1,  30.00,    1,  1.000,    0,  0.000,    0,  0.000,    0,  0.000
     128,      115,    "2",     0.000130,    0.002990,     0.345760,   3964.660,      0.000,      0.000,     0.000000,     0.000000,     0.000000,     0.000000, 1, 1,  30.00,    1,  1.000,    0,  0.000,    0,  0.000,    0,  0.000
     117,      128,    "1",     0.000220,    0.004980,     0.576260,   3964.660,      0.000,      0.000,     0.000000,     0.000000,     0.000000,     0.000000, 1, 1,  50.00,    1,  1.000,    0,  0.000,    0,  0.000,    0,  0.000
     181,      118,    "1",     0.000280,    0.006270,     0.726080,   3964.660,      0.000,      0.000,     0.000000,     0.000000,     0.000000,     0.000000, 1, 1,  63.00,    1,  1.000,    0,  0.000,    0,  0.000,    0,  0.000
     181,      118,    "2",     0.000280,    0.006270,     0.726080,   3964.660,      0.000,      0.000,     0.000000,     0.000000,     0.000000,     0.000000, 1, 1,  63.00,    1,  1.000,    0,  0.000,    0,  0.000,    0,  0.000
     118,      191,    "1",     0.000610,    0.013160,     1.690140,   4317.480,      0.000,      0.000,     0.000000,     0.000000,     0.000000,     0.000000, 1, 1,   0.40,    1,  1.000,    0,  0.000,    0,  0.000,    0,  0.000
     205,      118,    "1",     0.000350,    0.007520,     0.965800,   4317.480,      0.000,      0.000,     0.000000,     0.000000,     0.000000,     0.000000, 1, 1,   0.40,    1,  1.000,    0,  0.000,    0,  0.000,    0,  0.000
     120,      145,    "1",     0.000260,    0.005640,     0.724340,   4317.480,      0.000,      0.000,     0.000000,     0.000000,     0.000000,     0.000000, 1, 1,   0.00,    1,  1.000,    0,  0.000,    0,  0.000,    0,  0.000
     120,      145,    "2",     0.000260,    0.005640,     0.724340,   4317.480,      0.000,      0.000,     0.000000,     0.000000,     0.000000,     0.000000, 1, 1,   0.00,    1,  1.000,    0,  0.000,    0,  0.000,    0,  0.000
     120,      184,    "1",     0.000150,    0.003290,     0.422540,   4317.480,      0.000,      0.000,     0.000000,     0.000000,     0.000000,     0.000000, 1, 1,   0.00,    1,  1.000,    0,  0.000,    0,  0.000,    0,  0.000
     120,      184,    "2",     0.000150,    0.003290,     0.422540,   4317.480,      0.000,      0.000,     0.000000,     0.000000,     0.000000,     0.000000, 1, 1,   0.00,    1,  1.000,    0,  0.000,    0,  0.000,    0,  0.000
     121,      202,    "1",     0.000020,    0.000760,     1.645900,  17269.900,      0.000,      0.000,     0.000000,     0.000000,     0.000000,     0.000000, 1, 1,  33.00,    1,  1.000,    0,  0.000,    0,  0.000,    0,  0.000
     121,      202,    "2",     0.000020,    0.000760,     1.645900,  17269.900,      0.000,      0.000,     0.000000,     0.000000,     0.000000,     0.000000, 1, 1,  33.00,    1,  1.000,    0,  0.000,    0,  0.000,    0,  0.000
     212,      121,    "1",     0.000130,    0.004480,     9.262000,  14782.000,      0.000,      0.000,     0.000000,    -3.800000,     0.000000,    -3.800000, 1, 1, 187.00,    1,  1.000,    0,  0.000,    0,  0.000,    0,  0.000
     212,      121,    "2",     0.000130,    0.004480,     9.262000,  14782.000,      0.000,      0.000,     0.000000,    -3.800000,     0.000000,    -3.800000, 1, 1, 187.00,    1,  1.000,    0,  0.000,    0,  0.000,    0,  0.000
     142,      122,    "1",     0.000260,    0.005980,     0.691500,   3964.660,      0.000,      0.000,     0.000000,     0.000000,     0.000000,     0.000000, 1, 1,  60.00,    1,  1.000,    0,  0.000,    0,  0.000,    0,  0.000
     159,      122,    "1",     0.000570,    0.009350,     1.101320,   3073.520,      0.000,      0.000,     0.000000,     0.000000,     0.000000,     0.000000, 1, 1,   0.00,    1,  1.000,    0,  0.000,    0,  0.000,    0,  0.000
     195,      122,    "1",     0.000350,    0.007970,     0.922020,   3964.660,      0.000,      0.000,     0.000000,     0.000000,     0.000000,     0.000000, 1, 1,  80.00,    1,  1.000,    0,  0.000,    0,  0.000,    0,  0.000
     123,      180,    "1",     0.000480,    0.010960,     1.267760,   3964.660,      0.000,      0.000,     0.000000,     0.000000,     0.000000,     0.000000, 1, 1, 110.00,    1,  1.000,    0,  0.000,    0,  0.000,    0,  0.000
     204,      123,    "1",     0.000290,    0.004080,     0.432960,   3106.260,      0.000,      0.000,     0.000000,     0.000000,     0.000000,     0.000000, 1, 1,  40.00,    1,  1.000,    0,  0.000,    0,  0.000,    0,  0.000
     215,      123,    "1",     0.000290,    0.004080,     0.432960,   3106.260,      0.000,      0.000,     0.000000,     0.000000,     0.000000,     0.000000, 1, 1,  40.00,    1,  1.000,    0,  0.000,    0,  0.000,    0,  0.000
     215,      123,    "2",     0.000290,    0.004080,     0.432960,   3106.260,      0.000,      0.000,     0.000000,     0.000000,     0.000000,     0.000000, 1, 1,  40.00,    1,  1.000,    0,  0.000,    0,  0.000,    0,  0.000
     153,      124,    "1",     0.000230,    0.004920,     0.556620,      0.000,      0.000,      0.000,     0.000000,     0.000000,     0.000000,     0.000000, 1, 1,  50.00,    1,  1.000,    0,  0.000,    0,  0.000,    0,  0.000
     153,      124,    "2",     0.000230,    0.004920,     0.556620,      0.000,      0.000,      0.000,     0.000000,     0.000000,     0.000000,     0.000000, 1, 1,  50.00,    1,  1.000,    0,  0.000,    0,  0.000,    0,  0.000
     124,      178,    "1",     0.000660,    0.009840,     1.195120,      0.000,      0.000,      0.000,     0.000000,     0.000000,     0.000000,     0.000000, 1, 1,   1.00,    1,  1.000,    0,  0.000,    0,  0.000,    0,  0.000
     124,      191,    "1",     0.000750,    0.009570,     1.220560,      0.000,      0.000,      0.000,     0.000000,     0.000000,     0.000000,     0.000000, 1, 1,   1.00,    1,  1.000,    0,  0.000,    0,  0.000,    0,  0.000
     124,      191,    "2",     0.000750,    0.009570,     1.220560,      0.000,      0.000,      0.000,     0.000000,     0.000000,     0.000000,     0.000000, 1, 1,   1.00,    1,  1.000,    0,  0.000,    0,  0.000,    0,  0.000
     125,      167,    "1",     0.000070,    0.001490,     0.172880,   3964.660,      0.000,      0.000,     0.000000,     0.000000,     0.000000,     0.000000, 1, 1,  15.00,    1,  1.000,    0,  0.000,    0,  0.000,    0,  0.000
     125,      167,    "2",     0.000070,    0.001490,     0.172880,   3964.660,      0.000,      0.000,     0.000000,     0.000000,     0.000000,     0.000000, 1, 1,  15.00,    1,  1.000,    0,  0.000,    0,  0.000,    0,  0.000
     125,      204,    "1",     0.000090,    0.001990,     0.230500,   3964.660,      0.000,      0.000,     0.000000,     0.000000,     0.000000,     0.000000, 1, 1,  20.00,    1,  1.000,    0,  0.000,    0,  0.000,    0,  0.000
     125,      204,    "2",     0.000090,    0.001990,     0.230500,   3964.660,      0.000,      0.000,     0.000000,     0.000000,     0.000000,     0.000000, 1, 1,  20.00,    1,  1.000,    0,  0.000,    0,  0.000,    0,  0.000
     125,      204,    "3",     0.000090,    0.001990,     0.230500,   3964.660,      0.000,      0.000,     0.000000,     0.000000,     0.000000,     0.000000, 1, 1,  20.00,    1,  1.000,    0,  0.000,    0,  0.000,    0,  0.000
     125,      214,    "1",     0.000210,    0.004780,     0.553200,   3964.660,      0.000,      0.000,     0.000000,     0.000000,     0.000000,     0.000000, 1, 1,  48.00,    1,  1.000,    0,  0.000,    0,  0.000,    0,  0.000
     131,      127,    "1",     0.000050,    0.000990,     0.126760,   4317.480,      0.000,      0.000,     0.000000,     0.000000,     0.000000,     0.000000, 1, 1,   0.40,    1,  1.000,    0,  0.000,    0,  0.000,    0,  0.000
     131,      127,    "2",     0.000050,    0.000990,     0.126760,   4317.480,      0.000,      0.000,     0.000000,     0.000000,     0.000000,     0.000000, 1, 1,   0.40,    1,  1.000,    0,  0.000,    0,  0.000,    0,  0.000
     127,      187,    "1",     0.000420,    0.005870,     0.623440,   3106.260,      0.000,      0.000,     0.000000,     0.000000,     0.000000,     0.000000, 1, 1,  57.60,    1,  1.000,    0,  0.000,    0,  0.000,    0,  0.000
     127,      208,    "1",     0.000440,    0.006240,     0.662420,   3106.260,      0.000,      0.000,     0.000000,     0.000000,     0.000000,     0.000000, 1, 1,  61.20,    1,  1.000,    0,  0.000,    0,  0.000,    0,  0.000
     127,      208,    "2",     0.000440,    0.006120,     0.649420,   3106.260,      0.000,      0.000,     0.000000,     0.000000,     0.000000,     0.000000, 1, 1,  60.00,    1,  1.000,    0,  0.000,    0,  0.000,    0,  0.000
     128,      147,    "1",     0.000220,    0.004980,     0.576260,   3964.660,      0.000,      0.000,     0.000000,     0.000000,     0.000000,     0.000000, 1, 1,  50.00,    1,  1.000,    0,  0.000,    0,  0.000,    0,  0.000
     128,      147,    "2",     0.000220,    0.004980,     0.576260,   3964.660,      0.000,      0.000,     0.000000,     0.000000,     0.000000,     0.000000, 1, 1,  50.00,    1,  1.000,    0,  0.000,    0,  0.000,    0,  0.000
     129,      137,    "1",     0.000370,    0.008470,     0.979640,   3964.660,      0.000,      0.000,     0.000000,     0.000000,     0.000000,     0.000000, 1, 1,  85.00,    1,  1.000,    0,  0.000,    0,  0.000,    0,  0.000
     129,      137,    "2",     0.000370,    0.008470,     0.979640,   3964.660,      0.000,      0.000,     0.000000,     0.000000,     0.000000,     0.000000, 1, 1,  85.00,    1,  1.000,    0,  0.000,    0,  0.000,    0,  0.000
     152,      129,    "1",     0.000240,    0.005480,     0.633880,   3964.660,      0.000,      0.000,     0.000000,     0.000000,     0.000000,     0.000000, 1, 1,  55.00,    1,  1.000,    0,  0.000,    0,  0.000,    0,  0.000
     152,      129,    "2",     0.000240,    0.005480,     0.633880,   3964.660,      0.000,      0.000,     0.000000,     0.000000,     0.000000,     0.000000, 1, 1,  55.00,    1,  1.000,    0,  0.000,    0,  0.000,    0,  0.000
     133,      212,    "1",     0.000180,    0.005960,    12.332800,  14782.000,      0.000,      0.000,     0.000000,    -5.060000,     0.000000,    -5.060000, 1, 1, 249.00,    1,  1.000,    0,  0.000,    0,  0.000,    0,  0.000
     133,      212,    "2",     0.000180,    0.005960,    12.332800,  14782.000,      0.000,      0.000,     0.000000,    -5.060000,     0.000000,    -5.060000, 1, 1, 249.00,    1,  1.000,    0,  0.000,    0,  0.000,    0,  0.000
     306,      133,    "1",     0.000150,    0.005660,    12.219600,  17269.900,      0.000,      0.000,     0.000000,     0.000000,     0.000000,    -4.818000, 1, 1, 245.00,    1,  1.000,    0,  0.000,    0,  0.000,    0,  0.000
     306,      133,    "2",     0.000150,    0.005660,    12.219600,  17269.900,      0.000,      0.000,     0.000000,    -4.818000,     0.000000,     0.000000, 1, 1, 245.00,    1,  1.000,    0,  0.000,    0,  0.000,    0,  0.000
     502,      133,    "1",     0.000220,    0.008090,     1.456380,  17269.900,      0.000,      0.000,     0.000000,    -6.860000,     0.000000,    -6.860000, 1, 1,   0.80,    1,  1.000,    0,  0.000,    0,  0.000,    0,  0.000
     502,      133,    "2",     0.000220,    0.008090,     1.456380,  17269.900,      0.000,      0.000,     0.000000,    -6.860000,     0.000000,    -6.860000, 1, 1,   0.80,    1,  1.000,    0,  0.000,    0,  0.000,    0,  0.000
     134,      169,    "1",     0.000380,    0.003780,     0.000000,      0.000,      0.000,      0.000,     0.000000,     0.000000,     0.000000,     0.000000, 1, 1,   1.00,    1,  1.000,    0,  0.000,    0,  0.000,    0,  0.000
     169,      136,    "1",     0.000930,    0.009170,     1.010760,   2582.490,      0.000,      0.000,     0.000000,     0.000000,     0.000000,     0.000000, 1, 1,  90.00,    1,  1.000,    0,  0.000,    0,  0.000,    0,  0.000
     181,      136,    "1",     0.000220,    0.004980,     0.576260,   3964.660,      0.000,      0.000,     0.000000,     0.000000,     0.000000,     0.000000, 1, 1,  50.00,    1,  1.000,    0,  0.000,    0,  0.000,    0,  0.000
     181,      136,    "2",     0.000220,    0.004980,     0.576260,   3964.660,      0.000,      0.000,     0.000000,     0.000000,     0.000000,     0.000000, 1, 1,  50.00,    1,  1.000,    0,  0.000,    0,  0.000,    0,  0.000
     137,      159,    "1",     0.000150,    0.003490,     0.403380,   3964.660,      0.000,      0.000,     0.000000,     0.000000,     0.000000,     0.000000, 1, 1,  35.00,    1,  1.000,    0,  0.000,    0,  0.000,    0,  0.000
     137,      159,    "2",     0.000150,    0.003490,     0.403380,   3964.660,      0.000,      0.000,     0.000000,     0.000000,     0.000000,     0.000000, 1, 1,  35.00,    1,  1.000,    0,  0.000,    0,  0.000,    0,  0.000
     138,      170,    "1",     0.000150,    0.003490,     0.403380,   3964.660,      0.000,      0.000,     0.000000,     0.000000,     0.000000,     0.000000, 1, 1,  35.00,    1,  1.000,    0,  0.000,    0,  0.000,    0,  0.000
     138,      177,    "1",     0.000120,    0.001830,     0.208380,   3106.260,      0.000,      0.000,     0.000000,     0.000000,     0.000000,     0.000000, 1, 1,  18.00,    1,  1.000,    0,  0.000,    0,  0.000,    0,  0.000
     138,      214,    "1",     0.000680,    0.007400,     0.721800,      0.000,      0.000,      0.000,     0.000000,     0.000000,     0.000000,     0.000000, 1, 1,   1.00,    1,  1.000,    0,  0.000,    0,  0.000,    0,  0.000
     138,      214,    "2",     0.000730,    0.007480,     0.578480,      0.000,      0.000,      0.000,     0.000000,     0.000000,     0.000000,     0.000000, 1, 1,   1.00,    1,  1.000,    0,  0.000,    0,  0.000,    0,  0.000
     143,      140,    "1",     0.000180,    0.004060,     0.470220,   3964.660,      0.000,      0.000,     0.000000,     0.000000,     0.000000,     0.000000, 1, 1,  40.80,    1,  1.000,    0,  0.000,    0,  0.000,    0,  0.000
     140,      198,    "1",     0.000330,    0.003510,     0.452460,      0.000,      0.000,      0.000,     0.000000,     0.000000,     0.000000,     0.000000, 1, 1,   1.00,    1,  1.000,    0,  0.000,    0,  0.000,    0,  0.000
...